* NGSPICE file created from tt_um_lelo_gr03_analogicus.ext - technology: sky130A

* Replacing the lpe port list (../tech/scripts/fixlpe)
.subckt tt_um_lelo_gr03_analogicus uo_out<7> uo_out<6> uo_out<5> uo_out<4> uo_out<3> uo_out<2> uo_out<1> uo_out<0>
+ uio_out<7> uio_out<6> uio_out<5> uio_out<4> uio_out<3> uio_out<2> uio_out<1> uio_out<0> uio_oe<7> uio_oe<6> uio_oe<5> uio_oe<4> uio_oe<3> uio_oe<2> uio_oe<1> uio_oe<0> VDPWR VGND
+ ui_in<7> ui_in<6> ui_in<5> ui_in<4> ui_in<3> ui_in<2> ui_in<1> ui_in<0> uio_in<7> uio_in<6> uio_in<5> uio_in<4> uio_in<3> uio_in<2> uio_in<1> uio_in<0> ena rst_n clk
*.subckt tt_um_lelo_gr03_analogicus uo_out<7> uo_out<6> uo_out<5> uo_out<4> uo_out<3>
*+ uo_out<2> uo_out<1> uo_out<0> uio_out<7> uio_out<6> uio_out<5> uio_out<4> uio_out<3>
*+ uio_out<2> uio_out<1> uio_out<0> uio_oe<7> uio_oe<6> uio_oe<5> uio_oe<4> uio_oe<3>
*+ uio_oe<2> uio_oe<1> uio_oe<0> VDPWR VGND ui_in<7> ui_in<6> ui_in<5> ui_in<4> ui_in<3>
*+ ui_in<2> ui_in<1> ui_in<0> uio_in<7> uio_in<6> uio_in<5> uio_in<4> uio_in<3> uio_in<2>
*+ uio_in<1> uio_in<0> ena rst_n clk
X0 a_7444_17154# a_7228_15234# VGND sky130_fd_pr__res_high_po w=0.36 l=7.36
X1 LELO_GR03_1.x7.x21.S LELO_GR03_1.x7.x21.G LELO_GR03_1.x7.x20.G VDPWR sky130_fd_pr__pfet_01v8 ad=0.848 pd=4.26 as=0.528 ps=2.26 w=1.6 l=0.94
X2 LELO_GR03_1.x10.XA5.A LELO_GR03_1.x10.XA7.CN LELO_GR03_1.x10.XA3.MP1.S VDPWR sky130_fd_pr__pfet_01v8 ad=0.468 pd=2.84 as=0.288 ps=1.54 w=0.9 l=0.16
X3 a_11962_7464# a_12178_5544# VGND sky130_fd_pr__res_high_po w=0.36 l=7.36
X4 LELO_GR03_1.x7.x21.G LELO_GR03_1.x7.x20.G LELO_GR03_1.x7.x21.S VDPWR sky130_fd_pr__pfet_01v8 ad=0.528 pd=2.26 as=0.848 ps=4.26 w=1.6 l=0.94
X5 LELO_GR03_1.x1.x11.D LELO_GR03_1.x1.x21.OUT LELO_GR03_1.x7.INN VDPWR sky130_fd_pr__pfet_01v8 ad=0.5088 pd=2.98 as=0.3168 ps=1.62 w=0.96 l=0.94
X6 VGND VGND LELO_GR03_1.x1.XQ2.Emitter sky130_fd_pr__pnp_05v5_W3p40L3p40
**devattr s=462400,2720
X7 LELO_GR03_1.BIAS_CIRCUIT2_0.xb7.D a_11746_9122# VGND sky130_fd_pr__res_high_po w=0.36 l=7.36
X8 LELO_GR03_1.x7.x21.G LELO_GR03_1.x7.x21.G LELO_GR03_1.x7.x21.S VDPWR sky130_fd_pr__pfet_01v8 ad=0.528 pd=2.26 as=0.848 ps=4.26 w=1.6 l=0.94
X9 VGND VGND LELO_GR03_1.x1.XQ2.Emitter sky130_fd_pr__pnp_05v5_W3p40L3p40
**devattr s=462400,2720
X10 LELO_GR03_1.x7.x7<2>.S LELO_GR03_1.x7.INN LELO_GR03_1.x7.x20.G VGND sky130_fd_pr__nfet_01v8 ad=0.848 pd=4.26 as=0.528 ps=2.26 w=1.6 l=0.94
X11 LELO_GR03_1.x7.x21.G LELO_GR03_1.x12<1>.A LELO_GR03_1.x7.x7<2>.S VGND sky130_fd_pr__nfet_01v8 ad=0.528 pd=2.26 as=0.848 ps=4.26 w=1.6 l=0.94
X12 VGND VGND LELO_GR03_1.x1.XQ2.Emitter sky130_fd_pr__pnp_05v5_W3p40L3p40
**devattr s=462400,2720
X13 LELO_GR03_1.x7.PWRUP_N_1V8 ui_in<0> VDPWR VDPWR sky130_fd_pr__pfet_01v8 ad=0.468 pd=2.84 as=0.468 ps=2.84 w=0.9 l=0.16
X14 LELO_GR03_1.x7.x21.S LELO_GR03_1.x7.PWRUP_N_1V8 VDPWR VDPWR sky130_fd_pr__pfet_01v8 ad=0.8352 pd=3.46 as=1.4112 ps=6.74 w=2.88 l=0.22
X15 LELO_GR03_1.x10.XA6.MP1.S LELO_GR03_1.x10.XA6.A VDPWR VDPWR sky130_fd_pr__pfet_01v8 ad=0.288 pd=1.54 as=0.468 ps=2.84 w=0.9 l=0.16
X16 LELO_GR03_1.x10.XA7.MP2.S uo_out<0> LELO_GR03_1.x10.XA7.MN2.D VGND sky130_fd_pr__nfet_01v8 ad=0.288 pd=1.54 as=0.288 ps=1.54 w=0.9 l=0.16
X17 LELO_GR03_1.BIAS_CIRCUIT2_0.xa5.N a_11746_5544# VGND sky130_fd_pr__res_high_po w=0.36 l=7.36
X18 VGND VGND LELO_GR03_1.x1.XQ2<3>.Emitter sky130_fd_pr__pnp_05v5_W3p40L3p40
**devattr s=462400,2720
X19 LELO_GR03_1.x1.x14.D LELO_GR03_1.x1.x21.OUT LELO_GR03_1.x1.x17.D VDPWR sky130_fd_pr__pfet_01v8 ad=0.3168 pd=1.62 as=0.5088 ps=2.98 w=0.96 l=0.94
X20 LELO_GR03_1.x7.x20.G LELO_GR03_1.x7.x21.G LELO_GR03_1.x7.x21.S VDPWR sky130_fd_pr__pfet_01v8 ad=0.528 pd=2.26 as=0.848 ps=4.26 w=1.6 l=0.94
X21 LELO_GR03_1.x1.XQ2<3>.Emitter a_5288_15234# VGND sky130_fd_pr__res_high_po w=0.36 l=7.36
X22 VGND LELO_GR03_1.x1.x21.OUT LELO_GR03_1.x1.x21.OUT VGND sky130_fd_pr__nfet_01v8 ad=0.848 pd=4.26 as=0.528 ps=2.26 w=1.6 l=0.94
X23 VGND LELO_GR03_1.x12<1>.A sky130_fd_pr__cap_mim_m3_1 l=5 w=5
X24 LELO_GR03_1.BIAS_CIRCUIT2_0.xc2.S LELO_GR03_1.x7.VB_N LELO_GR03_1.x7.VB_N VGND sky130_fd_pr__nfet_01v8 ad=0.848 pd=4.26 as=0.528 ps=2.26 w=1.6 l=0.94
X25 VGND VGND LELO_GR03_1.x1.XQ2.Emitter sky130_fd_pr__pnp_05v5_W3p40L3p40
**devattr s=462400,2720
X26 LELO_GR03_1.x1.x15.G LELO_GR03_1.x1.x21.OUT LELO_GR03_1.x1.x18.G VGND sky130_fd_pr__nfet_01v8 ad=0.848 pd=4.26 as=0.528 ps=2.26 w=1.6 l=0.94
X27 LELO_GR03_1.BIAS_CIRCUIT2_0.xa6.N a_14770_9122# VGND sky130_fd_pr__res_high_po w=0.36 l=7.36
X28 VGND LELO_GR03_1.x10.CK LELO_GR03_1.x12<1>.A VGND sky130_fd_pr__nfet_01v8 ad=0.848 pd=4.26 as=0.528 ps=2.26 w=1.6 l=0.94
X29 LELO_GR03_1.x10.XA1.MN1.S LELO_GR03_1.x10.CK VGND VGND sky130_fd_pr__nfet_01v8 ad=0.288 pd=1.54 as=0.468 ps=2.84 w=0.9 l=0.16
X30 VGND VGND LELO_GR03_1.x1.XQ2.Emitter sky130_fd_pr__pnp_05v5_W3p40L3p40
**devattr s=462400,2720
X31 LELO_GR03_1.x1.x21.OUT LELO_GR03_1.x1.x21.x11<1>.A sky130_fd_pr__cap_mim_m3_1 l=5 w=5
X32 VGND LELO_GR03_1.x7.PWRUP_1V8 LELO_GR03_1.x7.x8.S VGND sky130_fd_pr__nfet_01v8 ad=1.4112 pd=6.74 as=0.8352 ps=3.46 w=2.88 l=0.22
X33 VGND VGND LELO_GR03_1.x1.XQ2.Emitter sky130_fd_pr__pnp_05v5_W3p40L3p40
**devattr s=462400,2720
X34 LELO_GR03_1.x1.x21.x6.G LELO_GR03_1.x1.x21.INP LELO_GR03_1.x1.x21.x3<1>.D VDPWR sky130_fd_pr__pfet_01v8_lvt ad=0.528 pd=2.26 as=0.848 ps=4.26 w=1.6 l=0.94
X35 VGND LELO_GR03_1.x12<1>.A sky130_fd_pr__cap_mim_m3_1 l=5 w=5
X36 LELO_GR03_1.x7.x10.D LELO_GR03_1.x7.x6.G LELO_GR03_1.x7.x8.S VGND sky130_fd_pr__nfet_01v8 ad=0.528 pd=2.26 as=0.848 ps=4.26 w=1.6 l=0.94
X37 LELO_GR03_1.x1.x21.x3<1>.S LELO_GR03_1.x7.PWRUP_N_1V8 VDPWR VDPWR sky130_fd_pr__pfet_01v8 ad=0.8352 pd=3.46 as=1.4112 ps=6.74 w=2.88 l=0.22
X38 LELO_GR03_1.BIAS_CIRCUIT2_0.xa6.N a_14770_5544# VGND sky130_fd_pr__res_high_po w=0.36 l=7.36
X39 VGND LELO_GR03_1.x7.PWRUP_1V8 LELO_GR03_1.BIAS_CIRCUIT2_0.xc2.S VGND sky130_fd_pr__nfet_01v8 ad=1.4112 pd=6.74 as=0.8352 ps=3.46 w=2.88 l=0.22
X40 LELO_GR03_1.x1.x21.x6.S LELO_GR03_1.x1.x21.x4.G LELO_GR03_1.x1.x21.x6.G VGND sky130_fd_pr__nfet_01v8 ad=0.848 pd=4.26 as=0.528 ps=2.26 w=1.6 l=0.94
R0 uio_oe<2> JNWTR_TIEL_CV_0.Y sky130_fd_pr__res_generic_m4 w=0.3 l=0.3
X41 LELO_GR03_1.x7.x20.G LELO_GR03_1.x7.INN LELO_GR03_1.x7.x7<2>.S VGND sky130_fd_pr__nfet_01v8 ad=0.528 pd=2.26 as=0.848 ps=4.26 w=1.6 l=0.94
X42 VGND VGND LELO_GR03_1.x1.XQ2.Emitter sky130_fd_pr__pnp_05v5_W3p40L3p40
**devattr s=462400,2720
X43 LELO_GR03_1.x1.x18.S LELO_GR03_1.x1.x18.G LELO_GR03_1.x1.x21.OUT VDPWR sky130_fd_pr__pfet_01v8 ad=0.848 pd=4.26 as=0.528 ps=2.26 w=1.6 l=0.94
X44 LELO_GR03_1.x10.XA5.A LELO_GR03_1.x10.XA7.C LELO_GR03_1.x10.XA4.MP1.S VDPWR sky130_fd_pr__pfet_01v8 ad=0.468 pd=2.84 as=0.288 ps=1.54 w=0.9 l=0.16
X45 VGND VGND LELO_GR03_1.x1.XQ2.Emitter sky130_fd_pr__pnp_05v5_W3p40L3p40
**devattr s=462400,2720
X46 LELO_GR03_1.x1.x21.x3<1>.D LELO_GR03_1.x1.XQ2<3>.Emitter LELO_GR03_1.x1.x21.x4.G VDPWR sky130_fd_pr__pfet_01v8_lvt ad=0.848 pd=4.26 as=0.528 ps=2.26 w=1.6 l=0.94
X47 a_13690_11042# a_13474_9122# VGND sky130_fd_pr__res_high_po w=0.36 l=7.36
X48 uo_out<0> LELO_GR03_1.x10.D VDPWR VDPWR sky130_fd_pr__pfet_01v8 ad=0.468 pd=2.84 as=0.468 ps=2.84 w=0.9 l=0.16
X49 LELO_GR03_1.x1.x21.OUT LELO_GR03_1.x1.x18.S sky130_fd_pr__cap_mim_m3_1 l=5 w=5
X50 LELO_GR03_1.x7.x7<2>.S LELO_GR03_1.x7.INN LELO_GR03_1.x7.x20.G VGND sky130_fd_pr__nfet_01v8 ad=0.848 pd=4.26 as=0.528 ps=2.26 w=1.6 l=0.94
X51 LELO_GR03_1.x1.x21.x6.S LELO_GR03_1.x7.PWRUP_1V8 VGND VGND sky130_fd_pr__nfet_01v8 ad=0.8352 pd=3.46 as=1.4112 ps=6.74 w=2.88 l=0.22
X52 LELO_GR03_1.x7.x8.S LELO_GR03_1.x7.PWRUP_1V8 VGND VGND sky130_fd_pr__nfet_01v8 ad=0.8352 pd=3.46 as=1.4112 ps=6.74 w=2.88 l=0.22
X53 LELO_GR03_1.x1.x18.S LELO_GR03_1.x7.PWRUP_N_1V8 VDPWR VDPWR sky130_fd_pr__pfet_01v8 ad=0.8352 pd=3.46 as=1.4112 ps=6.74 w=2.88 l=0.22
X54 LELO_GR03_1.x1.XQ2.Emitter a_10188_5354# VGND sky130_fd_pr__res_high_po w=0.36 l=7.36
X55 a_13690_7464# a_13474_5544# VGND sky130_fd_pr__res_high_po w=0.36 l=7.36
X56 VGND LELO_GR03_1.x12<1>.A sky130_fd_pr__cap_mim_m3_1 l=5 w=5
X57 LELO_GR03_1.x7.x21.S LELO_GR03_1.x7.PWRUP_N_1V8 VDPWR VDPWR sky130_fd_pr__pfet_01v8 ad=0.8352 pd=3.46 as=1.4112 ps=6.74 w=2.88 l=0.22
X58 VDPWR VDPWR LELO_GR03_1.x10.XA7.MP2.S VDPWR sky130_fd_pr__pfet_01v8 ad=0.288 pd=1.54 as=0.468 ps=2.84 w=0.9 l=0.16
X59 VGND VGND LELO_GR03_1.x1.XQ2.Emitter sky130_fd_pr__pnp_05v5_W3p40L3p40
**devattr s=462400,2720
X60 LELO_GR03_1.x1.x18.G LELO_GR03_1.x1.x18.G LELO_GR03_1.x1.x18.S VDPWR sky130_fd_pr__pfet_01v8 ad=0.528 pd=2.26 as=0.848 ps=4.26 w=1.6 l=0.94
X61 VDPWR LELO_GR03_1.x7.PWRUP_N_1V8 LELO_GR03_1.x1.x21.x3<1>.S VDPWR sky130_fd_pr__pfet_01v8 ad=1.4112 pd=6.74 as=0.8352 ps=3.46 w=2.88 l=0.22
X62 a_13258_11042# a_13474_9122# VGND sky130_fd_pr__res_high_po w=0.36 l=7.36
X63 LELO_GR03_1.x10.XA7.CN LELO_GR03_1.x10.XA7.C VGND VGND sky130_fd_pr__nfet_01v8 ad=0.468 pd=2.84 as=0.468 ps=2.84 w=0.9 l=0.16
X64 LELO_GR03_1.BIAS_CIRCUIT2_0.xb6.S LELO_GR03_1.x7.VB_N LELO_GR03_1.x1.VB_P VGND sky130_fd_pr__nfet_01v8 ad=0.848 pd=4.26 as=0.528 ps=2.26 w=1.6 l=0.94
R1 uio_oe<1> JNWTR_TIEL_CV_0.Y sky130_fd_pr__res_generic_m4 w=0.3 l=0.3
X65 VGND LELO_GR03_1.x12<1>.A sky130_fd_pr__cap_mim_m3_1 l=5 w=5
X66 LELO_GR03_1.x1.x21.x6.G LELO_GR03_1.x1.x21.INP LELO_GR03_1.x1.x21.x3<1>.D VDPWR sky130_fd_pr__pfet_01v8_lvt ad=0.528 pd=2.26 as=0.848 ps=4.26 w=1.6 l=0.94
X67 a_13258_7464# a_13474_5544# VGND sky130_fd_pr__res_high_po w=0.36 l=7.36
X68 LELO_GR03_1.x7.x8.S LELO_GR03_1.x7.x10.D LELO_GR03_1.x10.CK VGND sky130_fd_pr__nfet_01v8 ad=0.848 pd=4.26 as=0.528 ps=2.26 w=1.6 l=0.94
X69 LELO_GR03_1.x1.x18.S LELO_GR03_1.x7.PWRUP_N_1V8 VDPWR VDPWR sky130_fd_pr__pfet_01v8 ad=0.8352 pd=3.46 as=1.4112 ps=6.74 w=2.88 l=0.22
X70 LELO_GR03_1.x7.VB_N a_12178_2046# VGND sky130_fd_pr__res_high_po w=0.36 l=7.36
X71 LELO_GR03_1.x12<1>.A LELO_GR03_1.x7.PWRUP_N_1V8 VGND VGND sky130_fd_pr__nfet_01v8 ad=0.528 pd=2.26 as=0.848 ps=4.26 w=1.6 l=0.94
X72 LELO_GR03_1.x1.x14.D a_5720_15234# VGND sky130_fd_pr__res_high_po w=0.36 l=7.36
X73 LELO_GR03_1.x1.x18.S LELO_GR03_1.x1.x21.OUT LELO_GR03_1.x1.x9.D VDPWR sky130_fd_pr__pfet_01v8 ad=0.5088 pd=2.98 as=0.3168 ps=1.62 w=0.96 l=0.94
X74 LELO_GR03_1.x1.x21.x6.G a_3500_8957# VGND sky130_fd_pr__res_high_po w=0.36 l=7.36
X75 VGND VGND VGND VGND sky130_fd_pr__nfet_01v8 ad=0.528 pd=2.26 as=199.33521 ps=1.08756k w=1.6 l=0.94
X76 LELO_GR03_1.x1.x21.OUT LELO_GR03_1.x1.x21.x6.G LELO_GR03_1.x1.x21.x6.S VGND sky130_fd_pr__nfet_01v8 ad=0.528 pd=2.26 as=0.848 ps=4.26 w=1.6 l=0.94
X77 LELO_GR03_1.x7.x20.G LELO_GR03_1.x7.x21.G LELO_GR03_1.x7.x21.S VDPWR sky130_fd_pr__pfet_01v8 ad=0.528 pd=2.26 as=0.848 ps=4.26 w=1.6 l=0.94
X78 LELO_GR03_1.x1.x21.x3<1>.D LELO_GR03_1.x1.XQ2<3>.Emitter LELO_GR03_1.x1.x21.x4.G VDPWR sky130_fd_pr__pfet_01v8_lvt ad=0.848 pd=4.26 as=0.528 ps=2.26 w=1.6 l=0.94
X79 a_13258_11042# a_13042_9122# VGND sky130_fd_pr__res_high_po w=0.36 l=7.36
X80 VGND VGND VGND VGND sky130_fd_pr__nfet_01v8 ad=0.468 pd=2.84 as=0 ps=0 w=0.9 l=0.16
X81 VDPWR VDPWR VDPWR VDPWR sky130_fd_pr__pfet_01v8 ad=0.848 pd=4.26 as=46.8984 ps=233.08 w=1.6 l=0.94
X82 LELO_GR03_1.x1.x21.x3<1>.S LELO_GR03_1.x1.VB_P LELO_GR03_1.x1.x21.OUT VDPWR sky130_fd_pr__pfet_01v8 ad=0.848 pd=4.26 as=0.528 ps=2.26 w=1.6 l=0.94
X83 VDPWR LELO_GR03_1.x7.PWRUP_N_1V8 LELO_GR03_1.x1.x18.S VDPWR sky130_fd_pr__pfet_01v8 ad=1.4112 pd=6.74 as=0.8352 ps=3.46 w=2.88 l=0.22
X84 a_11962_3966# a_11746_2046# VGND sky130_fd_pr__res_high_po w=0.36 l=7.36
X85 LELO_GR03_1.x10.XA5.A LELO_GR03_1.x10.XA7.C LELO_GR03_1.x10.XA3.MN1.S VGND sky130_fd_pr__nfet_01v8 ad=0.468 pd=2.84 as=0.288 ps=1.54 w=0.9 l=0.16
X86 LELO_GR03_1.x7.x8.S LELO_GR03_1.x7.x6.G LELO_GR03_1.x7.x6.G VGND sky130_fd_pr__nfet_01v8 ad=0.848 pd=4.26 as=0.528 ps=2.26 w=1.6 l=0.94
X87 LELO_GR03_1.x1.x15.G LELO_GR03_1.x1.x15.G VGND VGND sky130_fd_pr__nfet_01v8 ad=0.528 pd=2.26 as=0.848 ps=4.26 w=1.6 l=0.94
X88 a_13258_7464# a_13042_5544# VGND sky130_fd_pr__res_high_po w=0.36 l=7.36
X89 LELO_GR03_1.x7.x21.S LELO_GR03_1.x7.x20.G LELO_GR03_1.x7.x21.G VDPWR sky130_fd_pr__pfet_01v8 ad=0.848 pd=4.26 as=0.528 ps=2.26 w=1.6 l=0.94
X90 a_12826_11042# a_12610_9122# VGND sky130_fd_pr__res_high_po w=0.36 l=7.36
X91 a_11962_3966# a_12178_2046# VGND sky130_fd_pr__res_high_po w=0.36 l=7.36
X92 VGND LELO_GR03_1.x7.PWRUP_1V8 LELO_GR03_1.x7.x8.S VGND sky130_fd_pr__nfet_01v8 ad=1.4112 pd=6.74 as=0.8352 ps=3.46 w=2.88 l=0.22
X93 LELO_GR03_1.x1.VB_P LELO_GR03_1.x1.VB_P LELO_GR03_1.BIAS_CIRCUIT2_0.xc4.D VDPWR sky130_fd_pr__pfet_01v8 ad=0.528 pd=2.26 as=0.848 ps=4.26 w=1.6 l=0.94
X94 LELO_GR03_1.x7.PWRUP_1V8 LELO_GR03_1.x7.PWRUP_N_1V8 VGND VGND sky130_fd_pr__nfet_01v8 ad=0.468 pd=2.84 as=0.468 ps=2.84 w=0.9 l=0.16
X95 VGND LELO_GR03_1.x7.PWRUP_1V8 LELO_GR03_1.x1.x21.x6.S VGND sky130_fd_pr__nfet_01v8 ad=1.4112 pd=6.74 as=0.8352 ps=3.46 w=2.88 l=0.22
X96 LELO_GR03_1.x7.x21.G LELO_GR03_1.x7.x20.G LELO_GR03_1.x7.x21.S VDPWR sky130_fd_pr__pfet_01v8 ad=0.528 pd=2.26 as=0.848 ps=4.26 w=1.6 l=0.94
X97 LELO_GR03_1.x10.XA6.MN1.S LELO_GR03_1.x10.XA6.A VGND VGND sky130_fd_pr__nfet_01v8 ad=0.288 pd=1.54 as=0.468 ps=2.84 w=0.9 l=0.16
X98 LELO_GR03_1.x7.INN a_7660_15234# VGND sky130_fd_pr__res_high_po w=0.36 l=7.36
X99 a_12826_7464# a_12610_5544# VGND sky130_fd_pr__res_high_po w=0.36 l=7.36
X100 LELO_GR03_1.x1.x18.S LELO_GR03_1.x1.x21.OUT LELO_GR03_1.x1.x11.D VDPWR sky130_fd_pr__pfet_01v8 ad=0.5088 pd=2.98 as=0.3168 ps=1.62 w=0.96 l=0.94
X101 LELO_GR03_1.x7.x7<2>.S LELO_GR03_1.x7.VB_N LELO_GR03_1.x7.x8.S VGND sky130_fd_pr__nfet_01v8 ad=0.528 pd=2.26 as=0.848 ps=4.26 w=1.6 l=0.94
X102 VDPWR LELO_GR03_1.x7.PWRUP_N_1V8 LELO_GR03_1.x7.x21.S VDPWR sky130_fd_pr__pfet_01v8 ad=1.4112 pd=6.74 as=0.8352 ps=3.46 w=2.88 l=0.22
X103 LELO_GR03_1.BIAS_CIRCUIT2_0.xa5.N a_11746_2046# VGND sky130_fd_pr__res_high_po w=0.36 l=7.36
X104 LELO_GR03_1.x7.x21.G LELO_GR03_1.x12<1>.A LELO_GR03_1.x7.x7<2>.S VGND sky130_fd_pr__nfet_01v8 ad=0.528 pd=2.26 as=0.848 ps=4.26 w=1.6 l=0.94
X105 LELO_GR03_1.x1.x21.x3<1>.S LELO_GR03_1.x7.PWRUP_N_1V8 VDPWR VDPWR sky130_fd_pr__pfet_01v8 ad=0.8352 pd=3.46 as=1.4112 ps=6.74 w=2.88 l=0.22
R2 uio_oe<6> JNWTR_TIEL_CV_0.Y sky130_fd_pr__res_generic_m4 w=0.3 l=0.3
X106 VDPWR VDPWR VDPWR VDPWR sky130_fd_pr__pfet_01v8 ad=0.468 pd=2.84 as=0 ps=0 w=0.9 l=0.16
X107 LELO_GR03_1.x10.CK LELO_GR03_1.x7.x10.D LELO_GR03_1.x7.x21.S VDPWR sky130_fd_pr__pfet_01v8 ad=0.528 pd=2.26 as=0.848 ps=4.26 w=1.6 l=0.94
X108 LELO_GR03_1.x1.x21.x6.G LELO_GR03_1.x1.x21.INP LELO_GR03_1.x1.x21.x3<1>.D VDPWR sky130_fd_pr__pfet_01v8_lvt ad=0.528 pd=2.26 as=0.848 ps=4.26 w=1.6 l=0.94
X109 LELO_GR03_1.x7.x7<2>.S LELO_GR03_1.x12<1>.A LELO_GR03_1.x7.x21.G VGND sky130_fd_pr__nfet_01v8 ad=0.848 pd=4.26 as=0.528 ps=2.26 w=1.6 l=0.94
X110 VDPWR VDPWR VDPWR VDPWR sky130_fd_pr__pfet_01v8 ad=0.528 pd=2.26 as=0 ps=0 w=1.6 l=0.94
X111 LELO_GR03_1.x1.x21.x3<1>.D LELO_GR03_1.x1.VB_P LELO_GR03_1.x1.x21.x3<1>.S VDPWR sky130_fd_pr__pfet_01v8 ad=0.528 pd=2.26 as=0.848 ps=4.26 w=1.6 l=0.94
X112 LELO_GR03_1.x10.XA5.A LELO_GR03_1.x10.XA7.CN LELO_GR03_1.x10.XA4.MN1.S VGND sky130_fd_pr__nfet_01v8 ad=0.468 pd=2.84 as=0.288 ps=1.54 w=0.9 l=0.16
X113 VGND VGND LELO_GR03_1.x1.XQ2.Emitter sky130_fd_pr__pnp_05v5_W3p40L3p40
**devattr s=462400,2720
X114 a_14554_11042# a_14770_9122# VGND sky130_fd_pr__res_high_po w=0.36 l=7.36
X115 LELO_GR03_1.x10.XA3.MP1.S LELO_GR03_1.x10.D VDPWR VDPWR sky130_fd_pr__pfet_01v8 ad=0.288 pd=1.54 as=0.468 ps=2.84 w=0.9 l=0.16
X116 VGND VGND LELO_GR03_1.x1.XQ2.Emitter sky130_fd_pr__pnp_05v5_W3p40L3p40
**devattr s=462400,2720
X117 LELO_GR03_1.x1.x21.x6.S LELO_GR03_1.x1.x21.x4.G LELO_GR03_1.x1.x21.x4.G VGND sky130_fd_pr__nfet_01v8 ad=0.848 pd=4.26 as=0.528 ps=2.26 w=1.6 l=0.94
X118 uo_out<0> LELO_GR03_1.x10.D VGND VGND sky130_fd_pr__nfet_01v8 ad=0.468 pd=2.84 as=0.468 ps=2.84 w=0.9 l=0.16
X119 LELO_GR03_1.x7.x21.S LELO_GR03_1.x7.x20.G LELO_GR03_1.x7.x10.D VDPWR sky130_fd_pr__pfet_01v8 ad=0.848 pd=4.26 as=0.528 ps=2.26 w=1.6 l=0.94
X120 VGND VGND LELO_GR03_1.x1.XQ2.Emitter sky130_fd_pr__pnp_05v5_W3p40L3p40
**devattr s=462400,2720
X121 LELO_GR03_1.x1.x17.D LELO_GR03_1.x1.x21.OUT LELO_GR03_1.x1.x18.S VDPWR sky130_fd_pr__pfet_01v8 ad=0.3168 pd=1.62 as=0.5088 ps=2.98 w=0.96 l=0.94
X122 a_14554_7464# a_14770_5544# VGND sky130_fd_pr__res_high_po w=0.36 l=7.36
X123 LELO_GR03_1.x1.x21.OUT LELO_GR03_1.x1.x18.S sky130_fd_pr__cap_mim_m3_1 l=5 w=5
X124 LELO_GR03_1.x12<1>.A LELO_GR03_1.x1.x21.OUT LELO_GR03_1.x1.x9.D VDPWR sky130_fd_pr__pfet_01v8 ad=0.3168 pd=1.62 as=0.5088 ps=2.98 w=0.96 l=0.94
X125 VDPWR VDPWR VDPWR VDPWR sky130_fd_pr__pfet_01v8 ad=0.848 pd=4.26 as=0 ps=0 w=1.6 l=0.94
X126 LELO_GR03_1.x1.x21.x3<1>.S LELO_GR03_1.x1.VB_P LELO_GR03_1.x1.x21.x3<1>.D VDPWR sky130_fd_pr__pfet_01v8 ad=0.848 pd=4.26 as=0.528 ps=2.26 w=1.6 l=0.94
X127 LELO_GR03_1.x10.XA7.MN2.D VDPWR VGND VGND sky130_fd_pr__nfet_01v8 ad=0.288 pd=1.54 as=0.468 ps=2.84 w=0.9 l=0.16
X128 VGND VGND LELO_GR03_1.x1.XQ2.Emitter sky130_fd_pr__pnp_05v5_W3p40L3p40
**devattr s=462400,2720
X129 VDPWR LELO_GR03_1.x7.PWRUP_N_1V8 LELO_GR03_1.BIAS_CIRCUIT2_0.xb7.D VDPWR sky130_fd_pr__pfet_01v8 ad=1.4112 pd=6.74 as=0.8352 ps=3.46 w=2.88 l=0.22
X130 VGND VGND LELO_GR03_1.x1.XQ2.Emitter sky130_fd_pr__pnp_05v5_W3p40L3p40
**devattr s=462400,2720
X131 VGND VGND LELO_GR03_1.x1.XQ2.Emitter sky130_fd_pr__pnp_05v5_W3p40L3p40
**devattr s=462400,2720
X132 VGND VGND LELO_GR03_1.x1.XQ2.Emitter sky130_fd_pr__pnp_05v5_W3p40L3p40
**devattr s=462400,2720
X133 a_5504_17154# a_5720_15234# VGND sky130_fd_pr__res_high_po w=0.36 l=7.36
X134 a_14554_11042# a_14338_9122# VGND sky130_fd_pr__res_high_po w=0.36 l=7.36
X135 VGND VGND LELO_GR03_1.x1.XQ2.Emitter sky130_fd_pr__pnp_05v5_W3p40L3p40
**devattr s=462400,2720
X136 LELO_GR03_1.x7.x21.S LELO_GR03_1.x7.x20.G LELO_GR03_1.x7.x21.G VDPWR sky130_fd_pr__pfet_01v8 ad=0.848 pd=4.26 as=0.528 ps=2.26 w=1.6 l=0.94
X137 VDPWR VDPWR LELO_GR03_1.x10.XA7.C VDPWR sky130_fd_pr__pfet_01v8 ad=0.468 pd=2.84 as=0.288 ps=1.54 w=0.9 l=0.16
X138 LELO_GR03_1.x7.x8.S LELO_GR03_1.x7.PWRUP_1V8 VGND VGND sky130_fd_pr__nfet_01v8 ad=0.8352 pd=3.46 as=1.4112 ps=6.74 w=2.88 l=0.22
X139 LELO_GR03_1.x1.x21.INP a_7228_15234# VGND sky130_fd_pr__res_high_po w=0.36 l=7.36
X140 a_14554_7464# a_14338_5544# VGND sky130_fd_pr__res_high_po w=0.36 l=7.36
X141 LELO_GR03_1.x7.x21.S LELO_GR03_1.x7.x21.G LELO_GR03_1.x7.x21.G VDPWR sky130_fd_pr__pfet_01v8 ad=0.848 pd=4.26 as=0.528 ps=2.26 w=1.6 l=0.94
X142 LELO_GR03_1.BIAS_CIRCUIT2_0.xc2.S LELO_GR03_1.x7.PWRUP_1V8 VGND VGND sky130_fd_pr__nfet_01v8 ad=0.8352 pd=3.46 as=1.4112 ps=6.74 w=2.88 l=0.22
X143 LELO_GR03_1.x1.x21.OUT LELO_GR03_1.x1.x21.x11<1>.A sky130_fd_pr__cap_mim_m3_1 l=5 w=5
X144 VGND VGND LELO_GR03_1.x1.XQ2.Emitter sky130_fd_pr__pnp_05v5_W3p40L3p40
**devattr s=462400,2720
X145 LELO_GR03_1.x1.x21.x4.G LELO_GR03_1.x1.XQ2<3>.Emitter LELO_GR03_1.x1.x21.x3<1>.D VDPWR sky130_fd_pr__pfet_01v8_lvt ad=0.528 pd=2.26 as=0.848 ps=4.26 w=1.6 l=0.94
X146 LELO_GR03_1.x7.x6.G LELO_GR03_1.x7.x21.G LELO_GR03_1.x7.x21.S VDPWR sky130_fd_pr__pfet_01v8 ad=0.528 pd=2.26 as=0.848 ps=4.26 w=1.6 l=0.94
X147 LELO_GR03_1.x7.x7<2>.S LELO_GR03_1.x7.VB_N LELO_GR03_1.x7.x8.S VGND sky130_fd_pr__nfet_01v8 ad=0.528 pd=2.26 as=0.848 ps=4.26 w=1.6 l=0.94
X148 LELO_GR03_1.x7.INN LELO_GR03_1.x1.x21.OUT LELO_GR03_1.x1.x11.D VDPWR sky130_fd_pr__pfet_01v8 ad=0.3168 pd=1.62 as=0.5088 ps=2.98 w=0.96 l=0.94
X149 VDPWR LELO_GR03_1.x7.PWRUP_N_1V8 LELO_GR03_1.x1.x21.x3<1>.S VDPWR sky130_fd_pr__pfet_01v8 ad=1.4112 pd=6.74 as=0.8352 ps=3.46 w=2.88 l=0.22
X150 LELO_GR03_1.x10.XA4.MP1.S LELO_GR03_1.x10.XA6.A VDPWR VDPWR sky130_fd_pr__pfet_01v8 ad=0.288 pd=1.54 as=0.468 ps=2.84 w=0.9 l=0.16
X151 VGND LELO_GR03_1.x7.PWRUP_1V8 LELO_GR03_1.x1.x21.x6.S VGND sky130_fd_pr__nfet_01v8 ad=1.4112 pd=6.74 as=0.8352 ps=3.46 w=2.88 l=0.22
X152 a_14122_11042# a_14338_9122# VGND sky130_fd_pr__res_high_po w=0.36 l=7.36
X153 LELO_GR03_1.x7.x21.S LELO_GR03_1.x7.x21.G LELO_GR03_1.x7.x20.G VDPWR sky130_fd_pr__pfet_01v8 ad=0.848 pd=4.26 as=0.528 ps=2.26 w=1.6 l=0.94
X154 LELO_GR03_1.x7.x20.G LELO_GR03_1.x7.x20.G LELO_GR03_1.x7.x21.S VDPWR sky130_fd_pr__pfet_01v8 ad=0.528 pd=2.26 as=0.848 ps=4.26 w=1.6 l=0.94
X155 VDPWR VDPWR VDPWR VDPWR sky130_fd_pr__pfet_01v8 ad=0.468 pd=2.84 as=0 ps=0 w=0.9 l=0.16
X156 JNWTR_TIEL_CV_0.Y JNWTR_TIEL_CV_0.MP0.G VGND VGND sky130_fd_pr__nfet_01v8 ad=0.468 pd=2.84 as=0.468 ps=2.84 w=0.9 l=0.16
X157 a_7444_17154# a_7660_15234# VGND sky130_fd_pr__res_high_po w=0.36 l=7.36
X158 a_14122_7464# a_14338_5544# VGND sky130_fd_pr__res_high_po w=0.36 l=7.36
X159 LELO_GR03_1.x7.x20.G LELO_GR03_1.x7.x21.G LELO_GR03_1.x7.x21.S VDPWR sky130_fd_pr__pfet_01v8 ad=0.528 pd=2.26 as=0.848 ps=4.26 w=1.6 l=0.94
X160 LELO_GR03_1.x1.x21.x3<1>.D LELO_GR03_1.x1.x21.INP LELO_GR03_1.x1.x21.x6.G VDPWR sky130_fd_pr__pfet_01v8_lvt ad=0.848 pd=4.26 as=0.528 ps=2.26 w=1.6 l=0.94
X161 LELO_GR03_1.x7.x8.S LELO_GR03_1.x7.x6.G LELO_GR03_1.x7.x10.D VGND sky130_fd_pr__nfet_01v8 ad=0.848 pd=4.26 as=0.528 ps=2.26 w=1.6 l=0.94
X162 LELO_GR03_1.x7.x7<2>.S LELO_GR03_1.x12<1>.A LELO_GR03_1.x7.x21.G VGND sky130_fd_pr__nfet_01v8 ad=0.848 pd=4.26 as=0.528 ps=2.26 w=1.6 l=0.94
X163 a_3284_10877# a_3500_8957# VGND sky130_fd_pr__res_high_po w=0.36 l=7.36
X164 a_13690_11042# a_13906_9122# VGND sky130_fd_pr__res_high_po w=0.36 l=7.36
X165 LELO_GR03_1.x1.x21.OUT LELO_GR03_1.x1.x18.S sky130_fd_pr__cap_mim_m3_1 l=5 w=5
X166 LELO_GR03_1.x1.x17.D LELO_GR03_1.x1.x21.OUT LELO_GR03_1.x1.x14.D VDPWR sky130_fd_pr__pfet_01v8 ad=0.5088 pd=2.98 as=0.3168 ps=1.62 w=0.96 l=0.94
X167 a_12826_11042# a_13042_9122# VGND sky130_fd_pr__res_high_po w=0.36 l=7.36
X168 LELO_GR03_1.x7.x20.G LELO_GR03_1.x7.INN LELO_GR03_1.x7.x7<2>.S VGND sky130_fd_pr__nfet_01v8 ad=0.528 pd=2.26 as=0.848 ps=4.26 w=1.6 l=0.94
X169 a_13690_7464# a_13906_5544# VGND sky130_fd_pr__res_high_po w=0.36 l=7.36
X170 VGND LELO_GR03_1.x12<1>.A sky130_fd_pr__cap_mim_m3_1 l=5 w=5
X171 LELO_GR03_1.x10.XA6.A LELO_GR03_1.x10.XA5.A VDPWR VDPWR sky130_fd_pr__pfet_01v8 ad=0.468 pd=2.84 as=0.468 ps=2.84 w=0.9 l=0.16
X172 VGND LELO_GR03_1.x7.PWRUP_1V8 LELO_GR03_1.BIAS_CIRCUIT2_0.xb6.S VGND sky130_fd_pr__nfet_01v8 ad=1.4112 pd=6.74 as=0.8352 ps=3.46 w=2.88 l=0.22
X173 LELO_GR03_1.BIAS_CIRCUIT2_0.xb7.D LELO_GR03_1.x7.PWRUP_N_1V8 VDPWR VDPWR sky130_fd_pr__pfet_01v8 ad=0.8352 pd=3.46 as=1.4112 ps=6.74 w=2.88 l=0.22
X174 a_12826_7464# a_13042_5544# VGND sky130_fd_pr__res_high_po w=0.36 l=7.36
X175 LELO_GR03_1.x1.x21.OUT LELO_GR03_1.x1.x18.G LELO_GR03_1.x1.x18.S VDPWR sky130_fd_pr__pfet_01v8 ad=0.528 pd=2.26 as=0.848 ps=4.26 w=1.6 l=0.94
X176 LELO_GR03_1.x1.x21.OUT LELO_GR03_1.x1.x21.OUT VGND VGND sky130_fd_pr__nfet_01v8 ad=0.528 pd=2.26 as=0.848 ps=4.26 w=1.6 l=0.94
R3 uio_oe<5> JNWTR_TIEL_CV_0.Y sky130_fd_pr__res_generic_m4 w=0.3 l=0.3
X177 LELO_GR03_1.x7.VB_N LELO_GR03_1.x7.VB_N LELO_GR03_1.BIAS_CIRCUIT2_0.xc2.S VGND sky130_fd_pr__nfet_01v8 ad=0.528 pd=2.26 as=0.848 ps=4.26 w=1.6 l=0.94
X178 LELO_GR03_1.x1.x18.G LELO_GR03_1.x1.x21.OUT LELO_GR03_1.x1.x15.G VGND sky130_fd_pr__nfet_01v8 ad=0.528 pd=2.26 as=0.848 ps=4.26 w=1.6 l=0.94
X179 a_12394_11042# a_12610_9122# VGND sky130_fd_pr__res_high_po w=0.36 l=7.36
X180 LELO_GR03_1.x12<1>.A LELO_GR03_1.x10.CK VGND VGND sky130_fd_pr__nfet_01v8 ad=0.528 pd=2.26 as=0.848 ps=4.26 w=1.6 l=0.94
X181 VGND LELO_GR03_1.x12<1>.A sky130_fd_pr__cap_mim_m3_1 l=5 w=5
X182 VGND VGND VGND VGND sky130_fd_pr__nfet_01v8 ad=0.468 pd=2.84 as=0 ps=0 w=0.9 l=0.16
X183 LELO_GR03_1.x7.x7<2>.S LELO_GR03_1.x7.INN LELO_GR03_1.x7.x20.G VGND sky130_fd_pr__nfet_01v8 ad=0.848 pd=4.26 as=0.528 ps=2.26 w=1.6 l=0.94
X184 LELO_GR03_1.x7.x20.G LELO_GR03_1.x7.INN LELO_GR03_1.x7.x7<2>.S VGND sky130_fd_pr__nfet_01v8 ad=0.528 pd=2.26 as=0.848 ps=4.26 w=1.6 l=0.94
X185 LELO_GR03_1.x10.D LELO_GR03_1.x10.XA7.CN LELO_GR03_1.x10.XA7.MP2.S VDPWR sky130_fd_pr__pfet_01v8 ad=0.468 pd=2.84 as=0.288 ps=1.54 w=0.9 l=0.16
X186 a_12394_7464# a_12610_5544# VGND sky130_fd_pr__res_high_po w=0.36 l=7.36
X187 LELO_GR03_1.x1.x21.x6.G LELO_GR03_1.x1.x21.x4.G LELO_GR03_1.x1.x21.x6.S VGND sky130_fd_pr__nfet_01v8 ad=0.528 pd=2.26 as=0.848 ps=4.26 w=1.6 l=0.94
X188 LELO_GR03_1.x1.x21.OUT LELO_GR03_1.x1.x21.x11<1>.A sky130_fd_pr__cap_mim_m3_1 l=5 w=5
X189 LELO_GR03_1.x1.x18.S LELO_GR03_1.x1.x18.G LELO_GR03_1.x1.x18.G VDPWR sky130_fd_pr__pfet_01v8 ad=0.848 pd=4.26 as=0.528 ps=2.26 w=1.6 l=0.94
X190 VDPWR LELO_GR03_1.x7.PWRUP_N_1V8 LELO_GR03_1.x7.x21.S VDPWR sky130_fd_pr__pfet_01v8 ad=1.4112 pd=6.74 as=0.8352 ps=3.46 w=2.88 l=0.22
X191 LELO_GR03_1.x1.x18.S LELO_GR03_1.x7.PWRUP_N_1V8 VDPWR VDPWR sky130_fd_pr__pfet_01v8 ad=0.8352 pd=3.46 as=1.4112 ps=6.74 w=2.88 l=0.22
X192 LELO_GR03_1.x1.x21.x3<1>.S LELO_GR03_1.x7.PWRUP_N_1V8 VDPWR VDPWR sky130_fd_pr__pfet_01v8 ad=0.8352 pd=3.46 as=1.4112 ps=6.74 w=2.88 l=0.22
X193 LELO_GR03_1.x10.XA3.MN1.S LELO_GR03_1.x10.D VGND VGND sky130_fd_pr__nfet_01v8 ad=0.288 pd=1.54 as=0.468 ps=2.84 w=0.9 l=0.16
X194 LELO_GR03_1.x1.x21.x4.G LELO_GR03_1.x1.XQ2<3>.Emitter LELO_GR03_1.x1.x21.x3<1>.D VDPWR sky130_fd_pr__pfet_01v8_lvt ad=0.528 pd=2.26 as=0.848 ps=4.26 w=1.6 l=0.94
R4 uio_oe<4> JNWTR_TIEL_CV_0.Y sky130_fd_pr__res_generic_m4 w=0.3 l=0.3
X195 LELO_GR03_1.x1.x21.x3<1>.D LELO_GR03_1.x1.x21.INP LELO_GR03_1.x1.x21.x6.G VDPWR sky130_fd_pr__pfet_01v8_lvt ad=0.848 pd=4.26 as=0.528 ps=2.26 w=1.6 l=0.94
X196 LELO_GR03_1.x7.x8.S LELO_GR03_1.x7.PWRUP_1V8 VGND VGND sky130_fd_pr__nfet_01v8 ad=0.8352 pd=3.46 as=1.4112 ps=6.74 w=2.88 l=0.22
X197 VGND LELO_GR03_1.x7.PWRUP_N_1V8 LELO_GR03_1.x12<1>.A VGND sky130_fd_pr__nfet_01v8 ad=0.848 pd=4.26 as=0.528 ps=2.26 w=1.6 l=0.94
X198 VGND VGND VGND VGND sky130_fd_pr__nfet_01v8 ad=0.848 pd=4.26 as=0 ps=0 w=1.6 l=0.94
X199 LELO_GR03_1.x1.x21.x6.S LELO_GR03_1.x1.x21.x6.G LELO_GR03_1.x1.x21.OUT VGND sky130_fd_pr__nfet_01v8 ad=0.848 pd=4.26 as=0.528 ps=2.26 w=1.6 l=0.94
X200 LELO_GR03_1.x1.x21.x6.S LELO_GR03_1.x7.PWRUP_1V8 VGND VGND sky130_fd_pr__nfet_01v8 ad=0.8352 pd=3.46 as=1.4112 ps=6.74 w=2.88 l=0.22
X201 LELO_GR03_1.x7.x21.S LELO_GR03_1.x7.x21.G LELO_GR03_1.x7.x20.G VDPWR sky130_fd_pr__pfet_01v8 ad=0.848 pd=4.26 as=0.528 ps=2.26 w=1.6 l=0.94
X202 LELO_GR03_1.x10.D LELO_GR03_1.x10.XA7.C LELO_GR03_1.x10.XA6.MP1.S VDPWR sky130_fd_pr__pfet_01v8 ad=0.468 pd=2.84 as=0.288 ps=1.54 w=0.9 l=0.16
X203 LELO_GR03_1.x7.x21.S LELO_GR03_1.x7.PWRUP_N_1V8 VDPWR VDPWR sky130_fd_pr__pfet_01v8 ad=0.8352 pd=3.46 as=1.4112 ps=6.74 w=2.88 l=0.22
X204 VGND VGND LELO_GR03_1.x1.XQ2.Emitter sky130_fd_pr__pnp_05v5_W3p40L3p40
**devattr s=462400,2720
X205 VGND VGND LELO_GR03_1.x1.XQ2.Emitter sky130_fd_pr__pnp_05v5_W3p40L3p40
**devattr s=462400,2720
X206 VGND LELO_GR03_1.x1.x15.G LELO_GR03_1.x1.x15.G VGND sky130_fd_pr__nfet_01v8 ad=0.848 pd=4.26 as=0.528 ps=2.26 w=1.6 l=0.94
X207 LELO_GR03_1.x10.XA7.C VDPWR LELO_GR03_1.x10.XA1.MN1.S VGND sky130_fd_pr__nfet_01v8 ad=0.468 pd=2.84 as=0.288 ps=1.54 w=0.9 l=0.16
X208 VGND VGND LELO_GR03_1.x1.XQ2.Emitter sky130_fd_pr__pnp_05v5_W3p40L3p40
**devattr s=462400,2720
X209 LELO_GR03_1.x1.VB_P LELO_GR03_1.x7.VB_N LELO_GR03_1.BIAS_CIRCUIT2_0.xb6.S VGND sky130_fd_pr__nfet_01v8 ad=0.528 pd=2.26 as=0.848 ps=4.26 w=1.6 l=0.94
X210 VGND LELO_GR03_1.x7.PWRUP_1V8 LELO_GR03_1.x7.x8.S VGND sky130_fd_pr__nfet_01v8 ad=1.4112 pd=6.74 as=0.8352 ps=3.46 w=2.88 l=0.22
X211 VGND VGND LELO_GR03_1.x1.XQ2.Emitter sky130_fd_pr__pnp_05v5_W3p40L3p40
**devattr s=462400,2720
X212 VDPWR LELO_GR03_1.x7.PWRUP_N_1V8 LELO_GR03_1.x1.x18.S VDPWR sky130_fd_pr__pfet_01v8 ad=1.4112 pd=6.74 as=0.8352 ps=3.46 w=2.88 l=0.22
X213 LELO_GR03_1.BIAS_CIRCUIT2_0.xc4.D LELO_GR03_1.x1.VB_P LELO_GR03_1.x1.VB_P VDPWR sky130_fd_pr__pfet_01v8 ad=0.848 pd=4.26 as=0.528 ps=2.26 w=1.6 l=0.94
X214 VGND LELO_GR03_1.x7.PWRUP_1V8 LELO_GR03_1.x1.x21.x6.S VGND sky130_fd_pr__nfet_01v8 ad=1.4112 pd=6.74 as=0.8352 ps=3.46 w=2.88 l=0.22
X215 LELO_GR03_1.x10.CK LELO_GR03_1.x7.x10.D LELO_GR03_1.x7.x8.S VGND sky130_fd_pr__nfet_01v8 ad=0.528 pd=2.26 as=0.848 ps=4.26 w=1.6 l=0.94
X216 LELO_GR03_1.x7.PWRUP_N_1V8 ui_in<0> VGND VGND sky130_fd_pr__nfet_01v8 ad=0.468 pd=2.84 as=0.468 ps=2.84 w=0.9 l=0.16
X217 VDPWR LELO_GR03_1.x7.PWRUP_N_1V8 LELO_GR03_1.BIAS_CIRCUIT2_0.xc4.D VDPWR sky130_fd_pr__pfet_01v8 ad=1.4112 pd=6.74 as=0.8352 ps=3.46 w=2.88 l=0.22
X218 LELO_GR03_1.x7.x21.S LELO_GR03_1.x7.x20.G LELO_GR03_1.x7.x21.G VDPWR sky130_fd_pr__pfet_01v8 ad=0.848 pd=4.26 as=0.528 ps=2.26 w=1.6 l=0.94
X219 LELO_GR03_1.x1.x9.D LELO_GR03_1.x1.x21.OUT LELO_GR03_1.x1.x18.S VDPWR sky130_fd_pr__pfet_01v8 ad=0.3168 pd=1.62 as=0.5088 ps=2.98 w=0.96 l=0.94
X220 VDPWR LELO_GR03_1.x7.PWRUP_N_1V8 LELO_GR03_1.x7.x21.S VDPWR sky130_fd_pr__pfet_01v8 ad=1.4112 pd=6.74 as=0.8352 ps=3.46 w=2.88 l=0.22
X221 LELO_GR03_1.x10.XA4.MN1.S LELO_GR03_1.x10.XA6.A VGND VGND sky130_fd_pr__nfet_01v8 ad=0.288 pd=1.54 as=0.468 ps=2.84 w=0.9 l=0.16
X222 LELO_GR03_1.x10.XA7.MP2.S uo_out<0> VDPWR VDPWR sky130_fd_pr__pfet_01v8 ad=0.288 pd=1.54 as=0.288 ps=1.54 w=0.9 l=0.16
X223 LELO_GR03_1.x7.x8.S LELO_GR03_1.x7.VB_N LELO_GR03_1.x7.x7<2>.S VGND sky130_fd_pr__nfet_01v8 ad=0.848 pd=4.26 as=0.528 ps=2.26 w=1.6 l=0.94
X224 VGND VGND LELO_GR03_1.x1.XQ2.Emitter sky130_fd_pr__pnp_05v5_W3p40L3p40
**devattr s=462400,2720
X225 VGND VGND LELO_GR03_1.x1.XQ2.Emitter sky130_fd_pr__pnp_05v5_W3p40L3p40
**devattr s=462400,2720
X226 LELO_GR03_1.x1.x21.x4.G LELO_GR03_1.x1.XQ2<3>.Emitter LELO_GR03_1.x1.x21.x3<1>.D VDPWR sky130_fd_pr__pfet_01v8_lvt ad=0.528 pd=2.26 as=0.848 ps=4.26 w=1.6 l=0.94
X227 JNWTR_TIEL_CV_0.MP0.G JNWTR_TIEL_CV_0.MP0.G VDPWR VDPWR sky130_fd_pr__pfet_01v8 ad=0.468 pd=2.84 as=0.468 ps=2.84 w=0.9 l=0.16
X228 VDPWR VDPWR VDPWR VDPWR sky130_fd_pr__pfet_01v8 ad=0.528 pd=2.26 as=0 ps=0 w=1.6 l=0.94
X229 LELO_GR03_1.x1.x21.OUT LELO_GR03_1.x1.VB_P LELO_GR03_1.x1.x21.x3<1>.S VDPWR sky130_fd_pr__pfet_01v8 ad=0.528 pd=2.26 as=0.848 ps=4.26 w=1.6 l=0.94
X230 LELO_GR03_1.x10.XA7.C LELO_GR03_1.x10.CK VDPWR VDPWR sky130_fd_pr__pfet_01v8 ad=0.288 pd=1.54 as=0.468 ps=2.84 w=0.9 l=0.16
X231 LELO_GR03_1.x7.x6.G LELO_GR03_1.x7.x6.G LELO_GR03_1.x7.x8.S VGND sky130_fd_pr__nfet_01v8 ad=0.528 pd=2.26 as=0.848 ps=4.26 w=1.6 l=0.94
X232 LELO_GR03_1.x7.x21.S LELO_GR03_1.x7.x10.D LELO_GR03_1.x10.CK VDPWR sky130_fd_pr__pfet_01v8 ad=0.848 pd=4.26 as=0.528 ps=2.26 w=1.6 l=0.94